Version 4
SHEET 1 880 680
WIRE 96 32 -80 32
WIRE 304 32 224 32
WIRE 560 32 304 32
WIRE 608 32 560 32
WIRE 304 80 304 32
WIRE 560 80 560 32
WIRE -80 112 -80 32
WIRE 160 160 160 80
WIRE 304 160 160 160
FLAG -80 192 0
FLAG 304 240 0
FLAG 560 160 0
FLAG -80 32 Vin
FLAG 608 32 Vout
SYMBOL voltage -80 96 R0
WINDOW 123 0 0 Left 0
WINDOW 39 24 124 Left 2
SYMATTR InstName V1
SYMATTR Value 5
SYMATTR SpiceLine Rser=240m
SYMBOL res 288 64 R0
SYMATTR InstName R1
SYMATTR Value {mc(120,.1)}
SYMBOL res 288 144 R0
SYMATTR InstName R2
SYMATTR Value {mc(240,.1)}
SYMBOL AutoGenerated\\LM317 160 32 R0
SYMATTR InstName U1
SYMBOL res 544 64 R0
SYMATTR InstName R3
SYMATTR Value {LOAD}
TEXT -114 264 Left 2 !.dc V1 5.6 7.2 .01
TEXT -114 296 Left 2 !.step param run 1 100 10
TEXT -114 320 Left 2 !.step dec param LOAD 5 70 2
