Version 4
SHEET 1 2864 1520
WIRE 2464 784 2432 784
WIRE 2464 800 2464 784
WIRE 2432 848 2432 784
WIRE 1488 896 1264 896
WIRE 1552 896 1488 896
WIRE 1856 896 1808 896
WIRE 2048 896 1856 896
WIRE 2144 896 2048 896
WIRE 1264 912 1264 896
WIRE 1488 912 1488 896
WIRE 1856 912 1856 896
WIRE 2048 912 2048 896
WIRE 2144 912 2144 896
WIRE 1264 1008 1264 992
WIRE 1488 1008 1488 976
WIRE 2048 1008 2048 976
WIRE 2144 1008 2144 992
WIRE 1680 1024 1680 992
WIRE 1856 1024 1856 992
WIRE 1856 1024 1680 1024
WIRE 2448 1024 2416 1024
WIRE 1680 1040 1680 1024
WIRE 1856 1040 1856 1024
WIRE 2448 1040 2448 1024
WIRE 2416 1088 2416 1024
WIRE 1680 1136 1680 1104
WIRE 1856 1136 1856 1120
FLAG 2144 896 OUT
FLAG 1856 1136 0
FLAG 2144 1008 0
FLAG 1264 1008 0
FLAG 2048 1008 0
FLAG 1264 896 IN
FLAG 1488 1008 0
FLAG 1680 1136 0
FLAG 2432 928 0
FLAG 2416 1168 0
SYMBOL RES 1840 896 R0
SYMATTR InstName R1
SYMATTR Value {mc(165, .1)}
SYMBOL RES 1840 1024 R0
SYMATTR InstName R2
SYMATTR Value {mc(365,.1)}
SYMBOL VOLTAGE 1264 896 R0
WINDOW 123 0 0 Left 2
SYMATTR InstName V1
SYMATTR Value PWL(0 4.2 1 5.5)
SYMATTR SpiceLine Rser=0.240
SYMBOL cap 2032 912 R0
SYMATTR InstName C1
SYMATTR Value 150µ
SYMBOL PowerProducts\\LT1086 1680 896 R0
SYMATTR InstName U1
SYMBOL cap 1472 912 R0
SYMATTR InstName C2
SYMATTR Value 10µ
SYMBOL cap 1664 1040 R0
SYMATTR InstName C3
SYMATTR Value 10µ
SYMBOL RES 2128 896 R0
SYMATTR InstName Rload
SYMATTR Value {load}
SYMBOL VOLTAGE 2432 832 R0
WINDOW 123 0 0 Left 2
SYMATTR InstName v_min_radio
SYMATTR Value 3.3
SYMATTR SpiceLine Rser=0.1
SYMBOL VOLTAGE 2416 1072 R0
WINDOW 123 0 0 Left 2
SYMATTR InstName v_max_radio
SYMATTR Value 5
SYMATTR SpiceLine Rser=0.1
TEXT 2008 1064 Left 2 !.tran 1
TEXT 1672 808 Bottom 2 ;LT1086\nUsing instead of AZ2085\ndrop out voltage = 1.3 V
TEXT 1856 1176 Left 2 ;configured for 4V output
TEXT 1224 1056 Left 2 ;Power supply: \n3 battery cells = 1.8*3=5.4V max\n1.4*3=4.2v min
TEXT 1872 736 Left 2 !.step dec param load 5 70 10
TEXT 1880 704 Left 2 !.step param run 1 100 10
