Version 4
SHEET 1 1148 680
WIRE -480 -48 -528 -48
WIRE -480 -16 -480 -48
WIRE -64 48 -272 48
WIRE 16 48 -64 48
WIRE 32 48 16 48
WIRE 352 48 320 48
WIRE 576 48 352 48
WIRE 672 48 576 48
WIRE -272 64 -272 48
WIRE -64 64 -64 48
WIRE 672 64 672 48
WIRE -480 80 -480 64
WIRE 576 80 576 48
WIRE -480 112 -544 112
WIRE -480 128 -480 112
WIRE 16 144 16 48
WIRE 32 144 16 144
WIRE 352 144 352 128
WIRE 352 144 320 144
WIRE -272 160 -272 144
WIRE -64 160 -64 128
WIRE 352 160 352 144
WIRE 576 176 576 144
WIRE 672 176 672 144
WIRE 176 240 176 208
WIRE 352 256 352 240
FLAG -272 160 0
FLAG 176 240 0
FLAG 672 48 OUT
FLAG -272 48 IN
FLAG 576 176 0
FLAG 352 256 0
FLAG -64 160 0
FLAG 672 176 0
FLAG -480 208 0
FLAG -480 80 0
SYMBOL voltage -272 48 R0
WINDOW 3 26 88 Left 0
WINDOW 123 0 0 Left 0
WINDOW 39 26 116 Left 0
SYMATTR Value PWL(0 4.2 1 5.5)
SYMATTR SpiceLine Rser=.240
SYMATTR InstName V1
SYMBOL cap 560 80 R0
WINDOW 0 41 31 Left 0
SYMATTR InstName C2
SYMATTR Value 10µ
SYMBOL res 336 32 R0
WINDOW 3 43 66 Left 2
SYMATTR InstName R1
SYMATTR Value {mc(9.5k,.1)}
SYMBOL res 336 144 R0
SYMATTR InstName R2
SYMATTR Value {mc(4.12k, .1)}
SYMBOL cap -80 64 R0
SYMATTR InstName C1
SYMATTR Value 1µ
SYMBOL res 656 48 R0
SYMATTR InstName Rload
SYMATTR Value {load}
SYMBOL PowerProducts\\LT1963A 176 96 R0
SYMATTR InstName U1
SYMBOL voltage -480 -32 R0
WINDOW 3 26 88 Left 0
WINDOW 123 0 0 Left 0
WINDOW 39 0 0 Left 0
SYMATTR Value 3.3
SYMATTR InstName v_min_radio
SYMBOL voltage -480 112 R0
WINDOW 3 26 88 Left 0
WINDOW 123 0 0 Left 0
WINDOW 39 0 0 Left 0
SYMATTR Value 5
SYMATTR InstName v_max_radio
TEXT 432 256 Left 0 !.tran 1 startup
TEXT 200 -80 Top 0 ;LT1963A - 1.5A, Low Noise, Fast Transient Response LDO Regulators\nInput: 10V     Output: 5V @ 1.5A
TEXT 320 -40 Left 2 !.step param run 1 100 10
TEXT 440 0 Left 2 !.step dec param load 5 70 10
TEXT 304 288 Left 2 ;monte carlo to simulate 10% tolerances on the resistor values
TEXT 712 168 Left 2 ;load sweep from \n5 ohms (750 mA - max current) \nto 70 ohms (60 mA - idle)
TEXT -288 208 Left 2 ;simulate voltage range \n4.2V to 5.5V - fully charged \nbatteries to dead, simple\nlinear model.
TEXT -568 296 VLeft 2 ;indicate max / min voltage limits\nof dra818v
TEXT 616 -40 Left 2 ;param for monte carlo
