*************************Disclaimer***************************
*
*  This model file is made by typical data,
*  and the manufacturing dispersions are not included.
*  Moreover, it does not guarantee all of the simulation
*  result of execution by using this.
*  This model is designed as ana aid for customers of ROHM semiconductor.
*  While it reflects reasonably close to similarity to the actual
*  device in term of performance, it is not suggested as a
*  replacement for actual equipments evaluation.
*
**************************************************************
* (C) Copyright 2019 ROHM Co.,Ltd. All right reserved.
**************************************************************
*
*Released by       : ROHM Co., Ltd
*Component         : BDxxC0AxFP
*Date              : 2019/5/14
*Model Type        : DC, Transient
*Simulator         : PSpice
*Simulator Version : 17.2-2016
*Model Revision
*BD00C0AWFP        :5.00
*BD33C0AWFP        :3.00
*BD50C0AWFP        :3.00
*BD80C0AWFP        :3.00
*BD90C0AWFP        :3.00
*BD33C0AFP         :3.00
*BD50C0AFP         :3.00
*BD80C0AFP         :3.00
*BD90C0AFP         :3.00
*
******************Revision update history*********************
*
*2015/5/20  : 1.00 release
*2018/12/12  : 2.00 release
*2019/5/14 : 3.00/5.00 release
*
********************Model Usage Notes*************************
*
*1. Temperature effects have not been modeled
*2. Stabillity depends on COUT and ESR have not been modeled
*
**************************************************************
**$INTERFACE
.SUBCKT BD00C0AWFP CTL Vcc N.C.1 Vo ADJ GND
$CDNENCSTART_ADV2
17f62b1fb318c25603aeb85644ae98a5d179ef807807791f6459efacb9d7ffc35a73a37243d4cce46a460e928d7c8f9c39ee99122a9d3f96f7d47fafa32ba578
c08d2ee449a2ddcf24d98d9ac2d15f62b3b5a3c80116b85a81bef5d18ca61bd4c5c56b66e0cb38ac1016f892427109f660d23d0e2b5b14a8914112766e609436
5b80b86aff7df227b11f4c6ba791ec8b69b3401c3b080cbf4c9952954b066dd8bb444a6249c4072fbffeaecc9eb8343c2837fc6402bd22f34310fe4c4c81cdd2
70f2ae55d0eec5a6004b208d65d1150caec4ca13eed7a199facbf9a76897429a4eb650681e945421f93793100e3ae88a2ad417d98b125cbf7a309c0028b896bd
2ab3bcbb305db22e6e9a2bf5cbd9daae140c0991de71b1aa08dbb59df212d49f9ee012677e999ed381525636203a8d6344fd262d9a9fcb14b3335a33b279b896
ac3a60849bf924ee382708a3ab33111902ba297c2515d24b8de787589d085805ef329480d20f06a5ca85870bea151e96bd080e812a67f4eeebbdca0f872562bc
c96c24d652539bbf0060adce98c62fae262455d6f0be7d78e4d91cad93395a9e17bb2babbf4cc61efb4cc19d59fde207c698a60f3a32f9af8c6ebfbf628ad4d2
42a746d005d4f33ac023dd779cf959bca85a6c76bbc5de3f74a50785fea68b479c63c5e5a95e26a5cf7795cf256b16f29cc30daefe50f14d7e033c119d70c686
c99f603c94719fcfd54401a8255a27192542874895143a86f445936bf177ec35f9c1f0e7c4a53a54af3825681c30a98a99339b5ad84d31cc87c1b080c8aa5b61
ded754a2e661f7dfc1091045deeafa42f0493071fb7ec2862f4546962d596226253d2c3760c7401f9287cced25f471914bf88424af0533945ffa675f0569f5be
12ea28f4046038cf6397aa7540d8f43fe8bca9e9f098f91f9180af2697267daf63dbd96da313039fffa5b1183db706d44bf88424af0533945ffa675f0569f5be
46e82845016ada3eeaf94f4e6bcd0b57c94aec979c05bd98ea1d1ccbe88c29fd152c876345716ffb711e76a3504cb6a44bf88424af0533945ffa675f0569f5be
6c6fcb9e3519bba00f444134b5984dd1e103acf76f270da548d5d146e0144a9050e001588c2b06254f0ae6f3ed32a61f28e1a4260b53c1f54861871de9c7ff95
3317b10b51899481b127c518ef6c20fca79a3117200a0bb1901ad4cf81abeca67cd558852efd57af754de8550e5a8cdafc1b1bdc85c70afd8dbab5cb607757f9
35c2c3f0bb4fa4cb8636931a5b3d7fa80dd285275ca91a1689e7cb9cf75f142b3c0c36f3407eb30b769843ca21e763e06be98f23b6f07f8b43b209ff456ec348
06353892a0e397992862da6008caabdb34cb0c184231ce544d0221e35b6e66d2fd02d8c4e8a4fc4a8b6bf4591864192c5bcd0eceb213b7f78af7551af6c39d71
342c10c6de2d0efefb007432815e5d79cefe6d009a564f76369268d66f2bff3f3c0c36f3407eb30b769843ca21e763e06be98f23b6f07f8b43b209ff456ec348
7649700101c863bef3700e998e8d4263c5489219928e1517b37c500bfee2503b854f652649ffb2221f401a4b422ba49e6be98f23b6f07f8b43b209ff456ec348
ab2a461f0f91c0f20db65485829d7e87273a99da8dfb2302cdc3f1ed5897e5ba35d5df331c685d759d745dfda7855c5f2fca3b9f30c024ecb0dcb057d3b1f641
08c98d8fe2e4b3320d7e329b68103d4538a2d8c802472e5b148a05a7abfc1e2566b0022b14043cb03a837385cecb4b8abc03edef83a1f8d0da8bffca94b08533
eac15c019bf45230d3eae7a92c9cd6513015f9655a99fe3a4d5d0699a716b79a66b0022b14043cb03a837385cecb4b8abc03edef83a1f8d0da8bffca94b08533
0f327e7bb43302cf01879edfc221c4b0a327524c83b5e73958524cb240980ed766b0022b14043cb03a837385cecb4b8abc03edef83a1f8d0da8bffca94b08533
d9ac06794772b1a3027d207ca989cbfa58eeb2e582954459d67cbf661c3fd28316498b62302da827d9750bb3845911b699339b5ad84d31cc87c1b080c8aa5b61
cd1b4cd7ebb1eab9f08e6c699855e0bce103acf76f270da548d5d146e0144a9050e001588c2b06254f0ae6f3ed32a61f1415f60f91fe378b523fbe61af3977d8
afe61d1fd823eb60647fbc72e27639fe820455081be69335bfd67fec02255fe12136845bc269e0a20adb1d3791daa1a35287a4e8bad6c217ef9e186f78b64d8a
ec387f7c1d7ebbfb18e11f76f4ba38b660a5ae362a887d88714e2effe3f5ec4d4aebe7001080da23bba7370042e0545d50e9410240122886f799d81ad1a9e3ad
39e9c1a61ead697ec86d5ec291777589be2965fb6d640526af0311b180df3a46253d2c3760c7401f9287cced25f471914bf88424af0533945ffa675f0569f5be
68ec7de33d0cad8d569deb348837af027acadf4ff4a45f2627976cde9a5a5b85150505ecf59a9b5c83d457ba42653645769befea59876e3e602834ed2c140fd3
a6081f50501f7d47e5c1bad659f9d11cf5ca5b2009c94a754193b6324d6c70846b1559a2ee769d8d6c6ee8d7af4d7d4df63877865b7b985065377cc10e0c56bf
adc0f38095ad1ecfeecfebadb7c8e09ffd2a43e97f444e43b92cdaaa00a24c0d66b1692b194f7d4cdac48641f9f232b350e9410240122886f799d81ad1a9e3ad
803aa78e7b153c8faa65f96af6d623e622745e71a923717ee0f7a2f84262ae063c0c36f3407eb30b769843ca21e763e06be98f23b6f07f8b43b209ff456ec348
bca7c79c422e32abaa7235beb28f44df6f23295e20902b3e7b063fb1a948354616498b62302da827d9750bb3845911b699339b5ad84d31cc87c1b080c8aa5b61
17a9151f76b4fd8515ca4fae0ff0c50a513940f53b8a505ebc3cde284ee1ec4e16498b62302da827d9750bb3845911b699339b5ad84d31cc87c1b080c8aa5b61
38212637033f9590b28d920d7c94f4220696239eb5b375307b0d7abb8f2eeece2136845bc269e0a20adb1d3791daa1a35287a4e8bad6c217ef9e186f78b64d8a
00147c48f8171d8d508ad88eab884cefded1c8d4d89b57810ddec092728aa25716498b62302da827d9750bb3845911b699339b5ad84d31cc87c1b080c8aa5b61
5176233009307390ad85916ad292227b0715d732c331f78c5a539bec40996456c467679b36bfc502641040c3d1fe959250e9410240122886f799d81ad1a9e3ad
d236fbdf12c8025d57dc57d4160c7f3661271ee05985186504032704b79fa3c9cdf587cb17d77fe8f62d50e1b856d1fd49a62c0535399cf4852d0c1cafbf5dfd
1325570cd9b24dc15de756f56a6638e25a5020a19abf717d5927aed6640224e641f11486c7986ad1a50f27fb969088355287a4e8bad6c217ef9e186f78b64d8a
e443621f8c01c4949be02c087392e8e54984a04824919ebf71d31aee7edd1642e3978e1ed0f00c662c164de5de8cf0e38cb7a900501ce574a77e9f457dcbf258
140c0991de71b1aa08dbb59df212d49f9ee012677e999ed381525636203a8d6384697ebce22f4002c1c9205093d8a82954dd7beebf5d5bd614e1118f372a6be0
8400588d5acdbf021ab0fb957b3e6fb73440f51d66fd9d8a828731577b5913c8854f652649ffb2221f401a4b422ba49e6be98f23b6f07f8b43b209ff456ec348
458ddd26c177d5cca277049dfd6b1f71995cb0636749e3628e3b09073dcb3e792136845bc269e0a20adb1d3791daa1a35287a4e8bad6c217ef9e186f78b64d8a
e94f9bf2663ec6c82c0346fff153bbf83bc16a89996788055a42fc8f48bdf18ed6589a5fcaa1c76b4c04e254b5f7f69bc33eb93529601da93807778b89c6a27b
cd4918896aa8fd6a791ddeac0a62584c8634162a31045c7bf766a6499274a237ffbd60b3addc092cd31b991337d90b78eb7974c0c7dcc1968431e4a425d17d7c
3112d7e55833d2c87afc6b3d44ac0810790b22b60431ad52a2054083749b6c125e2b9187fa5e7e7cf36cf6773a89c1959c08dd33d293a1ea093aa122d29bbb15
484efab110037c0fe3be39a65d8f47995fc5d8719d9f985926ba33016b69236c2789fc3fb1908f49e90fe4120c8e2e44cf390e467713e435b3aa9b986795b742
902ca5a848c6b17f0763c4ee690c6a9e68869fcfd1881e5ac417c51731f8672316498b62302da827d9750bb3845911b699339b5ad84d31cc87c1b080c8aa5b61
059c0bfb03052a95c3ed0af7a71737ac85df5ea6bcd0d4c487072e9e8c1b80aa7b59fa1a062ec7e065f491cee1af21cd0cce215faebf573a3dd197f07f27efe9
d23044b818f62261444b3a16bd357eeec95c9bc9408a4f211592a8729d43b096d85233475ff0b84bebf6936374b973e928d38069c09a4078b6774fdc644eb5fd
2113682751097f194d540a67ae3024e39f79bdb67f38c179fc81b2e2485ef3bc16498b62302da827d9750bb3845911b699339b5ad84d31cc87c1b080c8aa5b61
3ea28789981fc2f83c8e517d8df143f66e698480dd5a93ba4ff4a81a1bdbbeab3c0c36f3407eb30b769843ca21e763e06be98f23b6f07f8b43b209ff456ec348
f9a54293867fdbf9aaaf6eed05632399f726c1ca432a44e86ac0cb7699e72891fbdb2ae7560abe5c89cc2ceb2cd9a452d5e5f6ce652c9cf93a2275582536c99f
9b9cc98403186e565ea8388fa8ae27664fb712b47a08c6d8de4bca228d732a9f17e7d4628c9c5170b439e91af48006709719e119a6b9da61ca18fddcea44288b
823e6c60511aa99065a2cb367560be37044684b0beae8d7ae2003b60fa88a7c444597373695bca499ec1a3023e7b04178e5c1b94e024e753ff1c6b61063598d3
a3d4f9d21c91e926672210cafccccd1e17e7d4628c9c5170b439e91af4800670cb9f7414cd3ab682998de2c1cbd57637ca6d55e4d82b64d048a555c065042379
64b514c0dc779768fba4354020420f3beae80f8cfbccb4752dc0de2fb14c323d7b59fa1a062ec7e065f491cee1af21cd0cce215faebf573a3dd197f07f27efe9
8c46c60ca35a796fb9cf1894ec8e293ea949b4f2996bd4981f515933b52219797e5a118bccc6304698569cfa9c4f2c11adcf23321e87c3cf363235670c844a5e
35a65dd007b22a409bd8d8c10c6b75c2063f0873cfe479f4d541ce1d6c9a72c04fb335b89f34adf051d45b3e940eb54f8d7f8d7fcba6dd6a9e2c2170cd3dfdda
b977e21578fa0939b6039ca83f3b110b7013e0d91cba31f9f1fbc20ac23a71309ee012677e999ed381525636203a8d6344fd262d9a9fcb14b3335a33b279b896
$CDNENCFINISH_ADV2
.ENDS


.SUBCKT BD33C0AWFP CTL Vcc N.C.1 Vo N.C.2 GND
$CDNENCSTART_ADV2
17f62b1fb318c25603aeb85644ae98a5d179ef807807791f6459efacb9d7ffc35a73a37243d4cce46a460e928d7c8f9c39ee99122a9d3f96f7d47fafa32ba578
c08d2ee449a2ddcf24d98d9ac2d15f62b3b5a3c80116b85a81bef5d18ca61bd4c5c56b66e0cb38ac1016f892427109f660d23d0e2b5b14a8914112766e609436
5b80b86aff7df227b11f4c6ba791ec8b69b3401c3b080cbf4c9952954b066dd8bb444a6249c4072fbffeaecc9eb8343c2837fc6402bd22f34310fe4c4c81cdd2
70f2ae55d0eec5a6004b208d65d1150caec4ca13eed7a199facbf9a76897429a4eb650681e945421f93793100e3ae88a2ad417d98b125cbf7a309c0028b896bd
2ab3bcbb305db22e6e9a2bf5cbd9daae140c0991de71b1aa08dbb59df212d49f9ee012677e999ed381525636203a8d6344fd262d9a9fcb14b3335a33b279b896
ac3a60849bf924ee382708a3ab33111902ba297c2515d24b8de787589d085805ef329480d20f06a5ca85870bea151e96bd080e812a67f4eeebbdca0f872562bc
c96c24d652539bbf0060adce98c62fae262455d6f0be7d78e4d91cad93395a9e17bb2babbf4cc61efb4cc19d59fde207c698a60f3a32f9af8c6ebfbf628ad4d2
42a746d005d4f33ac023dd779cf959bca85a6c76bbc5de3f74a50785fea68b479c63c5e5a95e26a5cf7795cf256b16f29cc30daefe50f14d7e033c119d70c686
c99f603c94719fcfd54401a8255a27192542874895143a86f445936bf177ec35f9c1f0e7c4a53a54af3825681c30a98a99339b5ad84d31cc87c1b080c8aa5b61
ded754a2e661f7dfc1091045deeafa42f0493071fb7ec2862f4546962d596226253d2c3760c7401f9287cced25f471914bf88424af0533945ffa675f0569f5be
12ea28f4046038cf6397aa7540d8f43fe8bca9e9f098f91f9180af2697267daf63dbd96da313039fffa5b1183db706d44bf88424af0533945ffa675f0569f5be
46e82845016ada3eeaf94f4e6bcd0b57c94aec979c05bd98ea1d1ccbe88c29fd152c876345716ffb711e76a3504cb6a44bf88424af0533945ffa675f0569f5be
6c6fcb9e3519bba00f444134b5984dd1e103acf76f270da548d5d146e0144a9050e001588c2b06254f0ae6f3ed32a61f28e1a4260b53c1f54861871de9c7ff95
3317b10b51899481b127c518ef6c20fca79a3117200a0bb1901ad4cf81abeca67cd558852efd57af754de8550e5a8cdafc1b1bdc85c70afd8dbab5cb607757f9
35c2c3f0bb4fa4cb8636931a5b3d7fa80dd285275ca91a1689e7cb9cf75f142b3c0c36f3407eb30b769843ca21e763e06be98f23b6f07f8b43b209ff456ec348
06353892a0e397992862da6008caabdb34cb0c184231ce544d0221e35b6e66d2fd02d8c4e8a4fc4a8b6bf4591864192c5bcd0eceb213b7f78af7551af6c39d71


662652b53bcd6eda3caf737284ba2ec376b1b3d4a73df4ad3a51ad3d61b72a51178d2c4f63cd2f232347d65cfba42d9a64d219759c820ccd11063a97c4b93e76
1582418c055e25343cdff6d6005ccbac79b947d49327bf0d6a0f966c8f76ab9d178d2c4f63cd2f232347d65cfba42d9a64d219759c820ccd11063a97c4b93e76


342c10c6de2d0efefb007432815e5d79cefe6d009a564f76369268d66f2bff3f3c0c36f3407eb30b769843ca21e763e06be98f23b6f07f8b43b209ff456ec348
7649700101c863bef3700e998e8d4263c5489219928e1517b37c500bfee2503b854f652649ffb2221f401a4b422ba49e6be98f23b6f07f8b43b209ff456ec348
ab2a461f0f91c0f20db65485829d7e87273a99da8dfb2302cdc3f1ed5897e5ba35d5df331c685d759d745dfda7855c5f2fca3b9f30c024ecb0dcb057d3b1f641
08c98d8fe2e4b3320d7e329b68103d4538a2d8c802472e5b148a05a7abfc1e2566b0022b14043cb03a837385cecb4b8abc03edef83a1f8d0da8bffca94b08533
eac15c019bf45230d3eae7a92c9cd6513015f9655a99fe3a4d5d0699a716b79a66b0022b14043cb03a837385cecb4b8abc03edef83a1f8d0da8bffca94b08533
0f327e7bb43302cf01879edfc221c4b0a327524c83b5e73958524cb240980ed766b0022b14043cb03a837385cecb4b8abc03edef83a1f8d0da8bffca94b08533
d9ac06794772b1a3027d207ca989cbfa58eeb2e582954459d67cbf661c3fd28316498b62302da827d9750bb3845911b699339b5ad84d31cc87c1b080c8aa5b61
cd1b4cd7ebb1eab9f08e6c699855e0bce103acf76f270da548d5d146e0144a9050e001588c2b06254f0ae6f3ed32a61f1415f60f91fe378b523fbe61af3977d8
afe61d1fd823eb60647fbc72e27639fe820455081be69335bfd67fec02255fe12136845bc269e0a20adb1d3791daa1a35287a4e8bad6c217ef9e186f78b64d8a
ec387f7c1d7ebbfb18e11f76f4ba38b660a5ae362a887d88714e2effe3f5ec4d4aebe7001080da23bba7370042e0545d50e9410240122886f799d81ad1a9e3ad
39e9c1a61ead697ec86d5ec291777589be2965fb6d640526af0311b180df3a46253d2c3760c7401f9287cced25f471914bf88424af0533945ffa675f0569f5be
68ec7de33d0cad8d569deb348837af027acadf4ff4a45f2627976cde9a5a5b85150505ecf59a9b5c83d457ba42653645769befea59876e3e602834ed2c140fd3
a6081f50501f7d47e5c1bad659f9d11cf5ca5b2009c94a754193b6324d6c70846b1559a2ee769d8d6c6ee8d7af4d7d4df63877865b7b985065377cc10e0c56bf
adc0f38095ad1ecfeecfebadb7c8e09ffd2a43e97f444e43b92cdaaa00a24c0d66b1692b194f7d4cdac48641f9f232b350e9410240122886f799d81ad1a9e3ad
803aa78e7b153c8faa65f96af6d623e622745e71a923717ee0f7a2f84262ae063c0c36f3407eb30b769843ca21e763e06be98f23b6f07f8b43b209ff456ec348
bca7c79c422e32abaa7235beb28f44df6f23295e20902b3e7b063fb1a948354616498b62302da827d9750bb3845911b699339b5ad84d31cc87c1b080c8aa5b61
17a9151f76b4fd8515ca4fae0ff0c50a513940f53b8a505ebc3cde284ee1ec4e16498b62302da827d9750bb3845911b699339b5ad84d31cc87c1b080c8aa5b61
38212637033f9590b28d920d7c94f4220696239eb5b375307b0d7abb8f2eeece2136845bc269e0a20adb1d3791daa1a35287a4e8bad6c217ef9e186f78b64d8a
00147c48f8171d8d508ad88eab884cefded1c8d4d89b57810ddec092728aa25716498b62302da827d9750bb3845911b699339b5ad84d31cc87c1b080c8aa5b61
f9ec90a1e0d011070feb4d0f8e03a1d31d0207792255ee5299d5705dce62ac5416498b62302da827d9750bb3845911b699339b5ad84d31cc87c1b080c8aa5b61
5176233009307390ad85916ad292227b0715d732c331f78c5a539bec40996456c467679b36bfc502641040c3d1fe959250e9410240122886f799d81ad1a9e3ad
d236fbdf12c8025d57dc57d4160c7f3661271ee05985186504032704b79fa3c9cdf587cb17d77fe8f62d50e1b856d1fd49a62c0535399cf4852d0c1cafbf5dfd
1325570cd9b24dc15de756f56a6638e25a5020a19abf717d5927aed6640224e641f11486c7986ad1a50f27fb969088355287a4e8bad6c217ef9e186f78b64d8a
e443621f8c01c4949be02c087392e8e54984a04824919ebf71d31aee7edd1642e3978e1ed0f00c662c164de5de8cf0e38cb7a900501ce574a77e9f457dcbf258
140c0991de71b1aa08dbb59df212d49f9ee012677e999ed381525636203a8d6384697ebce22f4002c1c9205093d8a82954dd7beebf5d5bd614e1118f372a6be0
8400588d5acdbf021ab0fb957b3e6fb73440f51d66fd9d8a828731577b5913c8854f652649ffb2221f401a4b422ba49e6be98f23b6f07f8b43b209ff456ec348
458ddd26c177d5cca277049dfd6b1f71995cb0636749e3628e3b09073dcb3e792136845bc269e0a20adb1d3791daa1a35287a4e8bad6c217ef9e186f78b64d8a
e94f9bf2663ec6c82c0346fff153bbf83bc16a89996788055a42fc8f48bdf18ed6589a5fcaa1c76b4c04e254b5f7f69bc33eb93529601da93807778b89c6a27b
cd4918896aa8fd6a791ddeac0a62584c8634162a31045c7bf766a6499274a237ffbd60b3addc092cd31b991337d90b78eb7974c0c7dcc1968431e4a425d17d7c
3112d7e55833d2c87afc6b3d44ac0810790b22b60431ad52a2054083749b6c125e2b9187fa5e7e7cf36cf6773a89c1959c08dd33d293a1ea093aa122d29bbb15
484efab110037c0fe3be39a65d8f47995fc5d8719d9f985926ba33016b69236c2789fc3fb1908f49e90fe4120c8e2e44cf390e467713e435b3aa9b986795b742
902ca5a848c6b17f0763c4ee690c6a9e68869fcfd1881e5ac417c51731f8672316498b62302da827d9750bb3845911b699339b5ad84d31cc87c1b080c8aa5b61
059c0bfb03052a95c3ed0af7a71737ac85df5ea6bcd0d4c487072e9e8c1b80aa7b59fa1a062ec7e065f491cee1af21cd0cce215faebf573a3dd197f07f27efe9
d23044b818f62261444b3a16bd357eeec95c9bc9408a4f211592a8729d43b096d85233475ff0b84bebf6936374b973e928d38069c09a4078b6774fdc644eb5fd
2113682751097f194d540a67ae3024e39f79bdb67f38c179fc81b2e2485ef3bc16498b62302da827d9750bb3845911b699339b5ad84d31cc87c1b080c8aa5b61
3ea28789981fc2f83c8e517d8df143f66e698480dd5a93ba4ff4a81a1bdbbeab3c0c36f3407eb30b769843ca21e763e06be98f23b6f07f8b43b209ff456ec348
f9a54293867fdbf9aaaf6eed05632399f726c1ca432a44e86ac0cb7699e72891fbdb2ae7560abe5c89cc2ceb2cd9a452d5e5f6ce652c9cf93a2275582536c99f
477fc1202987f923a68e13a759387e07717f2c3abaf9e9a0300e0850aadb666cd6589a5fcaa1c76b4c04e254b5f7f69bc33eb93529601da93807778b89c6a27b
823e6c60511aa99065a2cb367560be37044684b0beae8d7ae2003b60fa88a7c444597373695bca499ec1a3023e7b04178e5c1b94e024e753ff1c6b61063598d3
d108a2748ec8872831dbf2ad09a537b9a79a3117200a0bb1901ad4cf81abeca67cd558852efd57af754de8550e5a8cdafc1b1bdc85c70afd8dbab5cb607757f9
64b514c0dc779768fba4354020420f3beae80f8cfbccb4752dc0de2fb14c323d7b59fa1a062ec7e065f491cee1af21cd0cce215faebf573a3dd197f07f27efe9
8c46c60ca35a796fb9cf1894ec8e293ea949b4f2996bd4981f515933b52219797e5a118bccc6304698569cfa9c4f2c11adcf23321e87c3cf363235670c844a5e
35a65dd007b22a409bd8d8c10c6b75c2063f0873cfe479f4d541ce1d6c9a72c04fb335b89f34adf051d45b3e940eb54f8d7f8d7fcba6dd6a9e2c2170cd3dfdda
b977e21578fa0939b6039ca83f3b110b7013e0d91cba31f9f1fbc20ac23a71309ee012677e999ed381525636203a8d6344fd262d9a9fcb14b3335a33b279b896
$CDNENCFINISH_ADV2
.ENDS


.SUBCKT BD50C0AWFP CTL Vcc N.C.1 Vo N.C.2 GND
$CDNENCSTART_ADV2
17f62b1fb318c25603aeb85644ae98a5d179ef807807791f6459efacb9d7ffc35a73a37243d4cce46a460e928d7c8f9c39ee99122a9d3f96f7d47fafa32ba578
c08d2ee449a2ddcf24d98d9ac2d15f62b3b5a3c80116b85a81bef5d18ca61bd4c5c56b66e0cb38ac1016f892427109f660d23d0e2b5b14a8914112766e609436
5b80b86aff7df227b11f4c6ba791ec8b69b3401c3b080cbf4c9952954b066dd8bb444a6249c4072fbffeaecc9eb8343c2837fc6402bd22f34310fe4c4c81cdd2
70f2ae55d0eec5a6004b208d65d1150caec4ca13eed7a199facbf9a76897429a4eb650681e945421f93793100e3ae88a2ad417d98b125cbf7a309c0028b896bd
2ab3bcbb305db22e6e9a2bf5cbd9daae140c0991de71b1aa08dbb59df212d49f9ee012677e999ed381525636203a8d6344fd262d9a9fcb14b3335a33b279b896
ac3a60849bf924ee382708a3ab33111902ba297c2515d24b8de787589d085805ef329480d20f06a5ca85870bea151e96bd080e812a67f4eeebbdca0f872562bc
c96c24d652539bbf0060adce98c62fae262455d6f0be7d78e4d91cad93395a9e17bb2babbf4cc61efb4cc19d59fde207c698a60f3a32f9af8c6ebfbf628ad4d2
42a746d005d4f33ac023dd779cf959bca85a6c76bbc5de3f74a50785fea68b479c63c5e5a95e26a5cf7795cf256b16f29cc30daefe50f14d7e033c119d70c686
c99f603c94719fcfd54401a8255a27192542874895143a86f445936bf177ec35f9c1f0e7c4a53a54af3825681c30a98a99339b5ad84d31cc87c1b080c8aa5b61
ded754a2e661f7dfc1091045deeafa42f0493071fb7ec2862f4546962d596226253d2c3760c7401f9287cced25f471914bf88424af0533945ffa675f0569f5be
12ea28f4046038cf6397aa7540d8f43fe8bca9e9f098f91f9180af2697267daf63dbd96da313039fffa5b1183db706d44bf88424af0533945ffa675f0569f5be
46e82845016ada3eeaf94f4e6bcd0b57c94aec979c05bd98ea1d1ccbe88c29fd152c876345716ffb711e76a3504cb6a44bf88424af0533945ffa675f0569f5be
6c6fcb9e3519bba00f444134b5984dd1e103acf76f270da548d5d146e0144a9050e001588c2b06254f0ae6f3ed32a61f28e1a4260b53c1f54861871de9c7ff95
3317b10b51899481b127c518ef6c20fca79a3117200a0bb1901ad4cf81abeca67cd558852efd57af754de8550e5a8cdafc1b1bdc85c70afd8dbab5cb607757f9
35c2c3f0bb4fa4cb8636931a5b3d7fa80dd285275ca91a1689e7cb9cf75f142b3c0c36f3407eb30b769843ca21e763e06be98f23b6f07f8b43b209ff456ec348
06353892a0e397992862da6008caabdb34cb0c184231ce544d0221e35b6e66d2fd02d8c4e8a4fc4a8b6bf4591864192c5bcd0eceb213b7f78af7551af6c39d71


662652b53bcd6eda3caf737284ba2ec3e4fa643c76c1ee8e7f3c4ff08c7cbe67854f652649ffb2221f401a4b422ba49e6be98f23b6f07f8b43b209ff456ec348
1582418c055e25343cdff6d6005ccbac95826554802d13eca1f40d46dddddac3178d2c4f63cd2f232347d65cfba42d9a64d219759c820ccd11063a97c4b93e76


342c10c6de2d0efefb007432815e5d79cefe6d009a564f76369268d66f2bff3f3c0c36f3407eb30b769843ca21e763e06be98f23b6f07f8b43b209ff456ec348
7649700101c863bef3700e998e8d4263c5489219928e1517b37c500bfee2503b854f652649ffb2221f401a4b422ba49e6be98f23b6f07f8b43b209ff456ec348
ab2a461f0f91c0f20db65485829d7e87273a99da8dfb2302cdc3f1ed5897e5ba35d5df331c685d759d745dfda7855c5f2fca3b9f30c024ecb0dcb057d3b1f641
08c98d8fe2e4b3320d7e329b68103d4538a2d8c802472e5b148a05a7abfc1e2566b0022b14043cb03a837385cecb4b8abc03edef83a1f8d0da8bffca94b08533
eac15c019bf45230d3eae7a92c9cd6513015f9655a99fe3a4d5d0699a716b79a66b0022b14043cb03a837385cecb4b8abc03edef83a1f8d0da8bffca94b08533
0f327e7bb43302cf01879edfc221c4b0a327524c83b5e73958524cb240980ed766b0022b14043cb03a837385cecb4b8abc03edef83a1f8d0da8bffca94b08533
d9ac06794772b1a3027d207ca989cbfa58eeb2e582954459d67cbf661c3fd28316498b62302da827d9750bb3845911b699339b5ad84d31cc87c1b080c8aa5b61
cd1b4cd7ebb1eab9f08e6c699855e0bce103acf76f270da548d5d146e0144a9050e001588c2b06254f0ae6f3ed32a61f1415f60f91fe378b523fbe61af3977d8
afe61d1fd823eb60647fbc72e27639fe820455081be69335bfd67fec02255fe12136845bc269e0a20adb1d3791daa1a35287a4e8bad6c217ef9e186f78b64d8a
ec387f7c1d7ebbfb18e11f76f4ba38b660a5ae362a887d88714e2effe3f5ec4d4aebe7001080da23bba7370042e0545d50e9410240122886f799d81ad1a9e3ad
39e9c1a61ead697ec86d5ec291777589be2965fb6d640526af0311b180df3a46253d2c3760c7401f9287cced25f471914bf88424af0533945ffa675f0569f5be
68ec7de33d0cad8d569deb348837af027acadf4ff4a45f2627976cde9a5a5b85150505ecf59a9b5c83d457ba42653645769befea59876e3e602834ed2c140fd3
a6081f50501f7d47e5c1bad659f9d11cf5ca5b2009c94a754193b6324d6c70846b1559a2ee769d8d6c6ee8d7af4d7d4df63877865b7b985065377cc10e0c56bf
adc0f38095ad1ecfeecfebadb7c8e09ffd2a43e97f444e43b92cdaaa00a24c0d66b1692b194f7d4cdac48641f9f232b350e9410240122886f799d81ad1a9e3ad
803aa78e7b153c8faa65f96af6d623e622745e71a923717ee0f7a2f84262ae063c0c36f3407eb30b769843ca21e763e06be98f23b6f07f8b43b209ff456ec348
bca7c79c422e32abaa7235beb28f44df6f23295e20902b3e7b063fb1a948354616498b62302da827d9750bb3845911b699339b5ad84d31cc87c1b080c8aa5b61
17a9151f76b4fd8515ca4fae0ff0c50a513940f53b8a505ebc3cde284ee1ec4e16498b62302da827d9750bb3845911b699339b5ad84d31cc87c1b080c8aa5b61
38212637033f9590b28d920d7c94f4220696239eb5b375307b0d7abb8f2eeece2136845bc269e0a20adb1d3791daa1a35287a4e8bad6c217ef9e186f78b64d8a
00147c48f8171d8d508ad88eab884cefded1c8d4d89b57810ddec092728aa25716498b62302da827d9750bb3845911b699339b5ad84d31cc87c1b080c8aa5b61
f9ec90a1e0d011070feb4d0f8e03a1d31d0207792255ee5299d5705dce62ac5416498b62302da827d9750bb3845911b699339b5ad84d31cc87c1b080c8aa5b61
5176233009307390ad85916ad292227b0715d732c331f78c5a539bec40996456c467679b36bfc502641040c3d1fe959250e9410240122886f799d81ad1a9e3ad
d236fbdf12c8025d57dc57d4160c7f3661271ee05985186504032704b79fa3c9cdf587cb17d77fe8f62d50e1b856d1fd49a62c0535399cf4852d0c1cafbf5dfd
1325570cd9b24dc15de756f56a6638e25a5020a19abf717d5927aed6640224e641f11486c7986ad1a50f27fb969088355287a4e8bad6c217ef9e186f78b64d8a
e443621f8c01c4949be02c087392e8e54984a04824919ebf71d31aee7edd1642e3978e1ed0f00c662c164de5de8cf0e38cb7a900501ce574a77e9f457dcbf258
140c0991de71b1aa08dbb59df212d49f9ee012677e999ed381525636203a8d6384697ebce22f4002c1c9205093d8a82954dd7beebf5d5bd614e1118f372a6be0
8400588d5acdbf021ab0fb957b3e6fb73440f51d66fd9d8a828731577b5913c8854f652649ffb2221f401a4b422ba49e6be98f23b6f07f8b43b209ff456ec348
458ddd26c177d5cca277049dfd6b1f71995cb0636749e3628e3b09073dcb3e792136845bc269e0a20adb1d3791daa1a35287a4e8bad6c217ef9e186f78b64d8a
e94f9bf2663ec6c82c0346fff153bbf83bc16a89996788055a42fc8f48bdf18ed6589a5fcaa1c76b4c04e254b5f7f69bc33eb93529601da93807778b89c6a27b
cd4918896aa8fd6a791ddeac0a62584c8634162a31045c7bf766a6499274a237ffbd60b3addc092cd31b991337d90b78eb7974c0c7dcc1968431e4a425d17d7c
3112d7e55833d2c87afc6b3d44ac0810790b22b60431ad52a2054083749b6c125e2b9187fa5e7e7cf36cf6773a89c1959c08dd33d293a1ea093aa122d29bbb15
484efab110037c0fe3be39a65d8f47995fc5d8719d9f985926ba33016b69236c2789fc3fb1908f49e90fe4120c8e2e44cf390e467713e435b3aa9b986795b742
902ca5a848c6b17f0763c4ee690c6a9e68869fcfd1881e5ac417c51731f8672316498b62302da827d9750bb3845911b699339b5ad84d31cc87c1b080c8aa5b61
059c0bfb03052a95c3ed0af7a71737ac85df5ea6bcd0d4c487072e9e8c1b80aa7b59fa1a062ec7e065f491cee1af21cd0cce215faebf573a3dd197f07f27efe9
d23044b818f62261444b3a16bd357eeec95c9bc9408a4f211592a8729d43b096d85233475ff0b84bebf6936374b973e928d38069c09a4078b6774fdc644eb5fd
2113682751097f194d540a67ae3024e39f79bdb67f38c179fc81b2e2485ef3bc16498b62302da827d9750bb3845911b699339b5ad84d31cc87c1b080c8aa5b61
3ea28789981fc2f83c8e517d8df143f66e698480dd5a93ba4ff4a81a1bdbbeab3c0c36f3407eb30b769843ca21e763e06be98f23b6f07f8b43b209ff456ec348
f9a54293867fdbf9aaaf6eed05632399f726c1ca432a44e86ac0cb7699e72891fbdb2ae7560abe5c89cc2ceb2cd9a452d5e5f6ce652c9cf93a2275582536c99f
477fc1202987f923a68e13a759387e07717f2c3abaf9e9a0300e0850aadb666cd6589a5fcaa1c76b4c04e254b5f7f69bc33eb93529601da93807778b89c6a27b
823e6c60511aa99065a2cb367560be37044684b0beae8d7ae2003b60fa88a7c444597373695bca499ec1a3023e7b04178e5c1b94e024e753ff1c6b61063598d3
d108a2748ec8872831dbf2ad09a537b9a79a3117200a0bb1901ad4cf81abeca67cd558852efd57af754de8550e5a8cdafc1b1bdc85c70afd8dbab5cb607757f9
64b514c0dc779768fba4354020420f3beae80f8cfbccb4752dc0de2fb14c323d7b59fa1a062ec7e065f491cee1af21cd0cce215faebf573a3dd197f07f27efe9
8c46c60ca35a796fb9cf1894ec8e293ea949b4f2996bd4981f515933b52219797e5a118bccc6304698569cfa9c4f2c11adcf23321e87c3cf363235670c844a5e
35a65dd007b22a409bd8d8c10c6b75c2063f0873cfe479f4d541ce1d6c9a72c04fb335b89f34adf051d45b3e940eb54f8d7f8d7fcba6dd6a9e2c2170cd3dfdda
b977e21578fa0939b6039ca83f3b110b7013e0d91cba31f9f1fbc20ac23a71309ee012677e999ed381525636203a8d6344fd262d9a9fcb14b3335a33b279b896
$CDNENCFINISH_ADV2
.ENDS


.SUBCKT BD80C0AWFP CTL Vcc N.C.1 Vo N.C.2 GND
$CDNENCSTART_ADV2
17f62b1fb318c25603aeb85644ae98a5d179ef807807791f6459efacb9d7ffc35a73a37243d4cce46a460e928d7c8f9c39ee99122a9d3f96f7d47fafa32ba578
c08d2ee449a2ddcf24d98d9ac2d15f62b3b5a3c80116b85a81bef5d18ca61bd4c5c56b66e0cb38ac1016f892427109f660d23d0e2b5b14a8914112766e609436
5b80b86aff7df227b11f4c6ba791ec8b69b3401c3b080cbf4c9952954b066dd8bb444a6249c4072fbffeaecc9eb8343c2837fc6402bd22f34310fe4c4c81cdd2
70f2ae55d0eec5a6004b208d65d1150caec4ca13eed7a199facbf9a76897429a4eb650681e945421f93793100e3ae88a2ad417d98b125cbf7a309c0028b896bd
2ab3bcbb305db22e6e9a2bf5cbd9daae140c0991de71b1aa08dbb59df212d49f9ee012677e999ed381525636203a8d6344fd262d9a9fcb14b3335a33b279b896
ac3a60849bf924ee382708a3ab33111902ba297c2515d24b8de787589d085805ef329480d20f06a5ca85870bea151e96bd080e812a67f4eeebbdca0f872562bc
c96c24d652539bbf0060adce98c62fae262455d6f0be7d78e4d91cad93395a9e17bb2babbf4cc61efb4cc19d59fde207c698a60f3a32f9af8c6ebfbf628ad4d2
42a746d005d4f33ac023dd779cf959bca85a6c76bbc5de3f74a50785fea68b479c63c5e5a95e26a5cf7795cf256b16f29cc30daefe50f14d7e033c119d70c686
c99f603c94719fcfd54401a8255a27192542874895143a86f445936bf177ec35f9c1f0e7c4a53a54af3825681c30a98a99339b5ad84d31cc87c1b080c8aa5b61
ded754a2e661f7dfc1091045deeafa42f0493071fb7ec2862f4546962d596226253d2c3760c7401f9287cced25f471914bf88424af0533945ffa675f0569f5be
12ea28f4046038cf6397aa7540d8f43fe8bca9e9f098f91f9180af2697267daf63dbd96da313039fffa5b1183db706d44bf88424af0533945ffa675f0569f5be
46e82845016ada3eeaf94f4e6bcd0b57c94aec979c05bd98ea1d1ccbe88c29fd152c876345716ffb711e76a3504cb6a44bf88424af0533945ffa675f0569f5be
6c6fcb9e3519bba00f444134b5984dd1e103acf76f270da548d5d146e0144a9050e001588c2b06254f0ae6f3ed32a61f28e1a4260b53c1f54861871de9c7ff95
3317b10b51899481b127c518ef6c20fca79a3117200a0bb1901ad4cf81abeca67cd558852efd57af754de8550e5a8cdafc1b1bdc85c70afd8dbab5cb607757f9
35c2c3f0bb4fa4cb8636931a5b3d7fa80dd285275ca91a1689e7cb9cf75f142b3c0c36f3407eb30b769843ca21e763e06be98f23b6f07f8b43b209ff456ec348
06353892a0e397992862da6008caabdb34cb0c184231ce544d0221e35b6e66d2fd02d8c4e8a4fc4a8b6bf4591864192c5bcd0eceb213b7f78af7551af6c39d71


662652b53bcd6eda3caf737284ba2ec378b0a00ae589c43550afbea09fd40aed854f652649ffb2221f401a4b422ba49e6be98f23b6f07f8b43b209ff456ec348
1582418c055e25343cdff6d6005ccbac60b551c1ef5211b4a85b808dc9bea1e296b4d89e7b19278ca1b6a4e06365bf60fbf73471efd8744d7d7c7b2a52756390


342c10c6de2d0efefb007432815e5d79cefe6d009a564f76369268d66f2bff3f3c0c36f3407eb30b769843ca21e763e06be98f23b6f07f8b43b209ff456ec348
7649700101c863bef3700e998e8d4263c5489219928e1517b37c500bfee2503b854f652649ffb2221f401a4b422ba49e6be98f23b6f07f8b43b209ff456ec348
ab2a461f0f91c0f20db65485829d7e87273a99da8dfb2302cdc3f1ed5897e5ba35d5df331c685d759d745dfda7855c5f2fca3b9f30c024ecb0dcb057d3b1f641
08c98d8fe2e4b3320d7e329b68103d4538a2d8c802472e5b148a05a7abfc1e2566b0022b14043cb03a837385cecb4b8abc03edef83a1f8d0da8bffca94b08533
eac15c019bf45230d3eae7a92c9cd6513015f9655a99fe3a4d5d0699a716b79a66b0022b14043cb03a837385cecb4b8abc03edef83a1f8d0da8bffca94b08533
0f327e7bb43302cf01879edfc221c4b0a327524c83b5e73958524cb240980ed766b0022b14043cb03a837385cecb4b8abc03edef83a1f8d0da8bffca94b08533
d9ac06794772b1a3027d207ca989cbfa58eeb2e582954459d67cbf661c3fd28316498b62302da827d9750bb3845911b699339b5ad84d31cc87c1b080c8aa5b61
cd1b4cd7ebb1eab9f08e6c699855e0bce103acf76f270da548d5d146e0144a9050e001588c2b06254f0ae6f3ed32a61f1415f60f91fe378b523fbe61af3977d8
afe61d1fd823eb60647fbc72e27639fe820455081be69335bfd67fec02255fe12136845bc269e0a20adb1d3791daa1a35287a4e8bad6c217ef9e186f78b64d8a
ec387f7c1d7ebbfb18e11f76f4ba38b660a5ae362a887d88714e2effe3f5ec4d4aebe7001080da23bba7370042e0545d50e9410240122886f799d81ad1a9e3ad
39e9c1a61ead697ec86d5ec291777589be2965fb6d640526af0311b180df3a46253d2c3760c7401f9287cced25f471914bf88424af0533945ffa675f0569f5be
68ec7de33d0cad8d569deb348837af027acadf4ff4a45f2627976cde9a5a5b85150505ecf59a9b5c83d457ba42653645769befea59876e3e602834ed2c140fd3
a6081f50501f7d47e5c1bad659f9d11cf5ca5b2009c94a754193b6324d6c70846b1559a2ee769d8d6c6ee8d7af4d7d4df63877865b7b985065377cc10e0c56bf
adc0f38095ad1ecfeecfebadb7c8e09ffd2a43e97f444e43b92cdaaa00a24c0d66b1692b194f7d4cdac48641f9f232b350e9410240122886f799d81ad1a9e3ad
803aa78e7b153c8faa65f96af6d623e622745e71a923717ee0f7a2f84262ae063c0c36f3407eb30b769843ca21e763e06be98f23b6f07f8b43b209ff456ec348
bca7c79c422e32abaa7235beb28f44df6f23295e20902b3e7b063fb1a948354616498b62302da827d9750bb3845911b699339b5ad84d31cc87c1b080c8aa5b61
17a9151f76b4fd8515ca4fae0ff0c50a513940f53b8a505ebc3cde284ee1ec4e16498b62302da827d9750bb3845911b699339b5ad84d31cc87c1b080c8aa5b61