**$ENCRYPTED_LIB
**$INTERFACE
**$ENCRYPTED_LIB
**$INTERFACE
*[Disclaimre]
*  This model file is made by typical data,
*  and the manufacturing dispersions are not included.
*  Moreover, it does not guarantee all of the simulation
*  result of execution by using this.
*  This model is designed as ana aid for customers of ROHM semiconductor.
*  While it reflects reasonably close to similarity to the actual
*  device in term of performance, it is not suggested as a 
*  replacement for actual equipments evaluation.
*
**************************************************************
* (C) Copyright 2015 ROHM Co.,Ltd. All right reserved. 
**************************************************************
*
*Released by       : ROHM Co., Ltd
*Component         : BD00C0A
*Date              : 2015/5/25
*Model Type        : DC, AC, Transient
*Simulator         : PSpice
*Simulator Version : 16.6-S032
*Model Revision    : 3.00
*
****************Revision update history***********************
*1.01     2014.1.23 1st release.   by Asuma Imamura
*2.00     2014.5.30 release by Asuma Imamura
*2.01     2014.8.19 delete tab 
*3.00     2015.5.29 update by Asuma Imamura
**************************************************************
*
*Model Usage Notes:
*1. Temperature effects have not been modeled
*2. Stabillity depends on COUT and ESR have not been modeled
*
**************************************************************
.SUBCKT BD00C0AW CTL VCC GND VO ADJ  
$CDNENCSTART
eee8c5c7a2bc4b01f045f303678664e7916da0bae22e8cb0bba041dd67c69ce448ea70148a9ac1670c8926c1ac5057c8ccfcd77bf87ca9dc8a02074e99d2c047
316c4e958281b805e5f812aeffd145372d2b008122457620d4d526e3432bceb7b6961ee57a5b3d2b436dd67ea8248a04dab178772fab7063008c8359fabc27b0
0033302266cdb82251c1a06a428686c942673be8b51174262756c096ba0dfb4ad1b52a22680fed817cb658357613342623d1b27cfdb084c23da256031ec9a66c
6046a794c63a517a8a9a64e28c8e0f77da9546afc91360fe37f6d0376a8a7c03a9cacf8ed7e8b36b08d52e35236f11961fd64b2e47eee5a7cdd49e6dad974b2d
9543595f77f5f9608883524e29ada6a356da7fdb82d17d95bf1ee911780421dd289ee5f06db3952e387ebc9eed4b7b70933001c0cfebad252a4785fba2ce4ac1
3562310fcea4af5f0302a8c30efa8edd118804eeeadf85c658c8020f59bd3ef94d869d0dfd2410c1706b807646b80371644126c9831a96bdd941a00aaac0b5f6
9e093befba10259c3671656ad50460bf9a904dac3803a923b383949ebd282b37498d5c08d113ad10c6c7d375240831a8d5c7bd20c95265424a6748e91df190ba
c090ba5dde96ff6ffc60364391b3d413cdb341934e6123d58adc1f5de4a98648a28c1b1982f489bca6cb2666bc8f9f6586439eecf81b0e0f4ae6b6433f6728d8
e66fa780b10d0304af14b7c938fb7d38a007cb9872abdf1bb507f4f8571cd47e909577e1fd66f3e1706b807646b803715cec6adc134a2a82b9d1fba3f0899e37
2834d1a2b6c382ecaf14b7c938fb7d387a82bf153f9e0d04cb11c63341f3db4f644126c9831a96bdb26ce3e2f23751c7706ee4de3bb32de86ced1b528f9e2c20
30121bf0e4b6f880c7389f615a82d95a749d13634498f34bd3fcaf6d887a529ef9c5e642b6416357ed857e222a29377b1dbdbb3ea6e880e10048af6c4b128093
56552e35591569af04af8e2c2053bb3fab39a91234bc9845947f46418123ea2e7a333785499236c48fd1b27880cc2e2302ef924545ce4006447eff36ba88d22e
e0bee0f3fadd6724a60fd3951de4fe9481d7133a0c11e552e8c173397f4e2d2624fdfd9bb2e10b07a9cacf8ed7e8b36b08d52e35236f11966da60dcd3c6c5f47
1ef800253abb0387c7389f615a82d95af2df4ed6d87ce0821ed21b6def2f6707357e3839739f359e644126c9831a96bdb26ce3e2f23751c7d2a2fcd71763c6ed
3f558f64bf36de66160c5be5669992812b9f8f52d7b98d17ee4c73184e61b6ffd1ff04506c10d2430625bfe03a06ba6126ebc9b49bb3b2db13b6b1dfa85520c4
01bdf4e611fdb3eea2f169dd7cb8834403b7ab3d47f75673b78cbe0129f1587b51c1a06a428686c942673be8b51174262756c096ba0dfb4a129f00c39ee46313
c74029358c684ec39d8b9b4a2fb0aab70829c7ad435a478def1d7357d3c4e2f3644126c9831a96bdb26ce3e2f23751c7706ee4de3bb32de86ced1b528f9e2c20
301e882fc75603994961e977ee15a47f9a904dac3803a92318f91f14a9052bcfa9cacf8ed7e8b36b08d52e35236f11961fd64b2e47eee5a7cdd49e6dad974b2d
052379b7de16d5cbac00fe1c1845425ec69267cdb46665ef5df49f8b4eebde6da7c3fecf8726c2b5ae6a00d06c3d72bc092b5cd78498f94105c3f90ae7373198
561ec061ed337c7d0c3e3368a1d249b5bedd2459453f5a1437f6d0376a8a7c03a9cacf8ed7e8b36b08d52e35236f11961fd64b2e47eee5a7cdd49e6dad974b2d
9afa1f10a7f457eac7389f615a82d95af2c1cbf39a028bc162d766f77596a54bd1ff04506c10d2430625bfe03a06ba6126ebc9b49bb3b2db13b6b1dfa85520c4
d38b9398f0c6d16e0302a8c30efa8eddedbd4fa017826d5a49bcb2e9b7241eb4644126c9831a96bdb26ce3e2f23751c7706ee4de3bb32de86ced1b528f9e2c20
449ae8749da64eff0302a8c30efa8edd522749e99524db4d10a190e1c153faedbf93045916a61324a9cacf8ed7e8b36b08d52e35236f11966da60dcd3c6c5f47
9445347659ec35d30c3e3368a1d249b59a904dac3803a923092a5dce91b1b60807251e9a671a8a9d7d54ef9e65096effd1ff04506c10d2431e7b3cb4579ea99d
a5bf507825b50f62d05ee9f4a2babc05522749e99524db4dbd30d73026cdc730d1ff04506c10d2430625bfe03a06ba6126ebc9b49bb3b2db13b6b1dfa85520c4
f06c95c79b4ad68bdd1bef0eb7f10b91983049bd0801b99679e6a841e03ddbceaae8591a4e20b1fffc60364391b3d413cdb341934e6123d5688180dd01a1f065
a367670a286b82a71d6c2c271f5eae468f81684d31880aea99e6aa1092516cb9319e63a09c847d59706b807646b803715cec6adc134a2a82b9d1fba3f0899e37
c3275e3eb0d684a1acab09debe5bac428b27bbcb75ae3916ed8ce2e705c14ecfb26ce3e2f23751c7706ee4de3bb32de8a59b43dcf3038a75fe15ce56f6d0f432
c81626cd1128c46d0c3e3368a1d249b59a904dac3803a923b383949ebd282b37dab178772fab7063ea7a88293573ddbffd9531291d96562a6cc4a1818d7194cd
b7bcec4429b0452c7b00fda5a4cf063a51c1a06a428686c942673be8b51174262756c096ba0dfb4ad1b52a22680fed817cb658357613342633d5c638e711779e

992e54e4d43a1f0f7f4f0f89d3f6cc4a46d41cbb8c0ac0523d40e08f9d5f29bed1ff04506c10d2430625bfe03a06ba6126ebc9b49bb3b2db13b6b1dfa85520c4
992e54e4d43a1f0f63b7775bad98af664f754769e63685f2f76ee266d9b59984d1ff04506c10d2430625bfe03a06ba6126ebc9b49bb3b2db13b6b1dfa85520c4
26342c7cc87d4c600beca7d21a8001c7cf7c10f075e7141a80611bcf24bab0d1b11d8eda49a2511a51c1a06a428686c942673be8b5117426f0f574af76698e4a
992e54e4d43a1f0f06194b2e277f09c7b7070ae0e560e7551611b53c7532439cb1fb3e89f63e7829a88611fcea3d838dfa5489a2cd768d52a912c8ec26039524
ecabcaac8e3696efd1ff04506c10d2430625bfe03a06ba6126ebc9b49bb3b2db6a1a323f640c9ae9bf51f5324ea1e29f7e6b9f88c763dfbf02427478c69549e2
a8e51f68ab95904650d72c1353d5a0e0aaef8e102a1e1f716090041c50b85f2705e0b778841b3860dda794baebb1298c8eb1883a6a29099a9b03be30bdb00fcb
68fd94b54b50fe09fc60364391b3d413cdb341934e6123d58adc1f5de4a98648a28c1b1982f489bca6cb2666bc8f9f6586439eecf81b0e0f4ae6b6433f6728d8
$CDNENCFINISH
.ENDS

.SUBCKT ENABLE A GND OUT  
$CDNENCSTART
eee8c5c7a2bc4b01f045f303678664e7916da0bae22e8cb0bba041dd67c69ce448ea70148a9ac1670c8926c1ac5057c8ccfcd77bf87ca9dc8a02074e99d2c047
71dbbe87e53e082f9b99f8419051854ce6aebda4fd243fdb1cf12e70ebcd0a04197892c90b55f9d13c15ce8ddcc58050a9cacf8ed7e8b36bf1a96cfe05243c52
afe317ae10e981559b99f8419051854c07e0b9243c435cb9fee41da3f7d0dd8db2d3f9676fab91ea197892c90b55f9d1bbb5545291c383c7b9d1fba3f0899e37
b8b56863f55c875e9b99f8419051854c25239ae2837949531bc5b2f0a87824f7d1ff04506c10d2430625bfe03a06ba6126ebc9b49bb3b2db13b6b1dfa85520c4
052379b7de16d5cbee7cb024d749a428310d5507dda32550a73148a44e0b6c1a3ed61da17bc046e0e1d93383014abccb9599d2db82131278c3a35039e98549f2
316c4e958281b8059b99f8419051854c1cf12e70ebcd0a041bc5b2f0a87824f7d1ff04506c10d2430625bfe03a06ba6126ebc9b49bb3b2db13b6b1dfa85520c4
052379b7de16d5cb5e3f600ac9ba5347310d5507dda32550a73148a44e0b6c1a3ed61da17bc046e0e1d93383014abccb9599d2db82131278c3a35039e98549f2
f0141b5f35912e429b99f8419051854cfee41da3f7d0dd8d07e0b9243c435cb925239ae283794953197892c90b55f9d1bbb5545291c383c7b9d1fba3f0899e37
3bdfb3bcf8540f57054b7312d356324e530cda14f43538eb1de333fbd2e0f35d289ee5f06db3952e387ebc9eed4b7b70933001c0cfebad252a4785fba2ce4ac1
61f0acdd6f1a2e999b99f8419051854c673746ab67b1fab3ce5ec34e6f8ad1ca60a0260e20e67e2c29a42ea6a50aeef2d1ff04506c10d2431e7b3cb4579ea99d
93d3808648446fd79b99f8419051854c0496040d75c88481d1e9b26e4eb6d0c1042f0c0c78bb0deb51c1a06a428686c942673be8b5117426f0f574af76698e4a
e0bee0f3fadd6724a60fd3951de4fe94e2910863ed100919f618abeb8f40b31e710f626c2faf14a6289ee5f06db3952e387ebc9eed4b7b70e375b31c65e969e1
$CDNENCFINISH
.ENDS

.SUBCKT OCP A ADJ GND OUT VCC  
$CDNENCSTART
eee8c5c7a2bc4b01f045f303678664e7916da0bae22e8cb0bba041dd67c69ce448ea70148a9ac1670c8926c1ac5057c8ccfcd77bf87ca9dc8a02074e99d2c047
12889321ad754f7b2fbfcc2b872ff946ce72a909a4fdfb06ce5ec34e6f8ad1ca0da274c1d5657c2ee71f71e187584171b26ce3e2f23751c7d2a2fcd71763c6ed
dac3774f2b35505c2fbfcc2b872ff946fc421394650f9612ce5ec34e6f8ad1ca34873cd2e64ab5b0be978ba254cc488151c1a06a428686c91216da65d5f80be3
8d577cebc7c5b18a2fbfcc2b872ff9462cded1cbdb557e271bc5b2f0a87824f7d1ff04506c10d2430625bfe03a06ba6126ebc9b49bb3b2db13b6b1dfa85520c4
a6831e4b1ffb74497cbb4e21388f8439fa948e497e9f07125cdb0ffe4e6a94d7fd52b8d7918d96ae5bb4fc30e38db59bd5dd6a408845ebdea7bc02b086da6037
77997184c1acbad72fbfcc2b872ff94673ebaa41667af7bff31eb0ff63d7939f042f0c0c78bb0deb51c1a06a428686c942673be8b5117426f0f574af76698e4a
f6c185cf8535a0c197705d9322a214a75bcddc33749eb8dd4e5b9c943ac48677d3ec5fdd3ef281f84e31f30c017e3713fcbd8187fdd5255d0fef98c6e05ad6ea
27366333f001ad56be978ba254cc488151c1a06a428686c942673be8b51174262756c096ba0dfb4ad1b52a22680fed817cb658357613342633d5c638e711779e
eea353dac855f3162fbfcc2b872ff946fc421394650f9612ce5ec34e6f8ad1ca4d584f3002a8a3a20f21154b6a79b2d6d1ff04506c10d2431e7b3cb4579ea99d
e7afa65b539576f8ef18b0d89acfb785c1bbe6c008cfc79f4e5b9c943ac48677cefe01cbc61b5b0885575d97e1a025e17699fb2c36ed7b4cc3a35039e98549f2
$CDNENCFINISH
.ENDS

.SUBCKT ERRORAMP GND INN INP OUT REG VIN  
$CDNENCSTART
eee8c5c7a2bc4b01f045f303678664e7916da0bae22e8cb0bba041dd67c69ce448ea70148a9ac1670c8926c1ac5057c8ccfcd77bf87ca9dc8a02074e99d2c047
240cf6a83072ff1a7be9307a64cd31287d3f62d1d1fd0461a510fc70a09632e159c533956c22c40d7e50fb9626a10d53e71f71e187584171d941a00aaac0b5f6
604aa0ea81d30895a60fd3951de4fe9465cfcf3c85c4613193f4a41218a9724062d766f77596a54bd1ff04506c10d2430625bfe03a06ba61756f3dcb10621a58
d4fccefab942acada60fd3951de4fe94b3f54137e5d77359955f478f324f6d7f24fdfd9bb2e10b07a9cacf8ed7e8b36b08d52e35236f11966da60dcd3c6c5f47
449ae8749da64eff7be9307a64cd31284a6e6c544d4707f8b90c4b4fccef0ae1141af12de9037485fc60364391b3d413cdb341934e6123d5688180dd01a1f065
00ce491ced787908a60fd3951de4fe946eebbbaf58a7f8f5955f478f324f6d7f24fdfd9bb2e10b07a9cacf8ed7e8b36b08d52e35236f11966da60dcd3c6c5f47
3bdfb3bcf8540f577be9307a64cd31282bb6bcb2f2981607883055bc4d080da0fc60364391b3d413cdb341934e6123d58adc1f5de4a9864857294c589aead26f
a26f79178575bc047be9307a64cd312819b077751be1706602b6825da90f1ec07e4e0aed1a01205b706b807646b80371ed857e222a29377b5895aa321c348508
f966d44174846ac27be9307a64cd3128fc41bbdd62c8846952ee9cbd0d2ff241c3ee1e85f6dead6aa9cacf8ed7e8b36b08d52e35236f11966da60dcd3c6c5f47
8d1467e43b77878f7be9307a64cd31283eb38e6c9d073b6b94c4ce3e3af8967c62d766f77596a54bd1ff04506c10d2430625bfe03a06ba61756f3dcb10621a58
9445347659ec35d326c880f485e2ca34b1e61ac486dbba99b383949ebd282b378567a5698541ed9a64704f737df33ba757e4186130ddb7cd7ccc0443c629ad57
4e4839aad98489d17be9307a64cd3128847684497e9bf014a11d20960517c0f400d3e0b087c73744fc60364391b3d413cdb341934e6123d5688180dd01a1f065
2a76c18f665e8c277be9307a64cd3128a99dcf8275162d04a510fc70a09632e1e964144332337f8883c41ce1dd76275ac2356fa0b0fe3ea98a02074e99d2c047
d8f5a2ccd87b60ee7be9307a64cd3128a2e34fbe1e8b7ae5c0920f34d12874c0fc60364391b3d413cdb341934e6123d58adc1f5de4a9864857294c589aead26f
0a1e89a3334c60c4a60fd3951de4fe94b63c06fe3fb8a08930af9832354b1d7e042f0c0c78bb0deb51c1a06a428686c942673be8b5117426f0f574af76698e4a
2cb041b4228f29a67be9307a64cd312830afcd7c3da633e2a11d20960517c0f400d3e0b087c73744fc60364391b3d413cdb341934e6123d5688180dd01a1f065
aa0254e3ebf92a357be9307a64cd31285aa61105bcdb2a38535aee020b52a34a710f626c2faf14a6289ee5f06db3952e387ebc9eed4b7b70e375b31c65e969e1
3512819c68f5b80c7be9307a64cd3128688633ba819071b6a11d20960517c0f400d3e0b087c73744fc60364391b3d413cdb341934e6123d5688180dd01a1f065
0b00c72b7c2c95cdbe48ce030deefa11b4b4c39ef8b2bdd7a09546df2e73c22f436828db4c3d11796e761a6f7fb9e99f67f76b2e6f1cd1b337169978ef758792
04ea67bdcbe8befa547db031a60d4f93e71f71e187584171b26ce3e2f23751c7706ee4de3bb32de8a59b43dcf3038a75f698004442669b9e6e68c7dd3c2ca861
42529ef9a11f8dd87be9307a64cd3128c166468d208ed6700398519c0b8e3178042f0c0c78bb0deb51c1a06a428686c942673be8b5117426f0f574af76698e4a
f06c95c79b4ad68b054b7312d356324e0f96d6a3af0ed5d0a09546df2e73c22f5b46d57378d92480fdce831104d6e27be99f46fe276e85cab9d1fba3f0899e37
e0bee0f3fadd6724a60fd3951de4fe94276d44163a1a1a9c79cdac0c30cb0b8300d3e0b087c73744fc60364391b3d413cdb341934e6123d5688180dd01a1f065

a804f2fb59239605d8390a4c96a78fa3f7e92b7edb0d6576d1ff04506c10d2430625bfe03a06ba6126ebc9b49bb3b2db6a1a323f640c9ae97f3ca37905e6b9ae
0697746efb67a3a3bff9bbda576fa85cfc60364391b3d413cdb341934e6123d58adc1f5de4a98648a28c1b1982f489bca6cb2666bc8f9f658ee0c731c152d126
907b18424c62896bf54a69d043632936dcfa4c2f37f8835351c1a06a428686c942673be8b51174262756c096ba0dfb4ad1b52a22680fed813907f80ca899c6c3

2cfd781695004e386deac3ededbd6c565bbf6f4c08b503130c6e8d4da3095b460da1a04aca40705a50f593fb5796c39111ceb0f8590ce099ec60ad1488db8fd0
68205805116f50c2fe560883a27f7a9ee847dda77d5f9443b26ce3e2f23751c7706ee4de3bb32de8a59b43dcf3038a75f698004442669b9e6e68c7dd3c2ca861
5c0b5aeb15a91632671653fa53959d2c1b8068cf819489721d36ba72ffea5059833ea0b4e47227623c67c002f2e184cabec4b09666eff28aea37a49269d9672d
3d62a828231bb771d1ff04506c10d2430625bfe03a06ba6126ebc9b49bb3b2db6a1a323f640c9ae9bf51f5324ea1e29f7e6b9f88c763dfbf02427478c69549e2
$CDNENCFINISH
.ENDS

